ald5
                    3D
 Structure written by MMmdl.
 85 90  0  0  1  0            999 V2000
   -7.3457    4.4214    1.8068 N   0  0  0  0  0  0
   -6.2800    3.9849    1.9474 C   0  0  0  0  0  0
   -4.9655    3.4570    2.1504 C   0  0  0  0  0  0
   -4.8886    2.1530    2.8604 C   0  0  0  0  0  0
   -4.0113    1.1518    2.4227 C   0  0  0  0  0  0
   -3.9196   -0.0801    3.0745 C   0  0  0  0  0  0
   -4.7240   -0.3163    4.1952 C   0  0  0  0  0  0
   -5.6092    0.6681    4.6535 C   0  0  0  0  0  0
   -6.4534    0.3930    5.8476 C   0  0  0  0  0  0
   -7.2567    1.1979    6.3287 O   0  0  0  0  0  0
   -5.6854    1.8978    3.9831 C   0  0  0  0  0  0
   -3.8699    4.0204    1.5895 C   0  0  0  0  0  0
   -3.7674    5.2466    0.7699 C   0  0  0  0  0  0
   -2.8349    5.2493   -0.2703 C   0  0  0  0  0  0
   -2.6777    6.3567   -1.1136 C   0  0  0  0  0  0
   -1.6959    6.3253   -2.2276 C   0  0  0  0  0  0
   -0.8790    7.4906   -2.3753 C   0  0  0  0  0  0
   -0.2358    8.4474   -2.5052 N   0  0  0  0  0  0
   -1.4882    5.1983   -2.9483 C   0  0  0  0  0  0
   -0.5089    4.9412   -4.0268 C   0  0  0  0  0  0
    0.0131    3.6491   -4.1291 C   0  0  0  0  0  0
    0.9570    3.3119   -5.1082 C   0  0  0  0  0  0
    1.5111    1.9355   -5.1872 C   0  0  0  0  0  0
    1.6112    1.3749   -6.5000 C   0  0  0  0  0  0
    1.7128    0.9345   -7.5685 N   0  0  0  0  0  0
    1.7553    1.2085   -4.0717 C   0  0  0  0  0  0
    2.2262   -0.1886   -3.9503 C   0  0  0  0  0  0
    1.7458   -0.9412   -2.8756 C   0  0  0  0  0  0
    2.1278   -2.2754   -2.6837 C   0  0  0  0  0  0
    1.5935   -3.0585   -1.5406 C   0  0  0  0  0  0
    2.5521   -3.8261   -0.8064 C   0  0  0  0  0  0
    3.3299   -4.4651   -0.2296 N   0  0  0  0  0  0
    0.3112   -2.9172   -1.1309 C   0  0  0  0  0  0
   -0.3750   -3.5282    0.0287 C   0  0  0  0  0  0
   -1.3639   -2.7718    0.6625 C   0  0  0  0  0  0
   -2.0538   -3.2515    1.7842 C   0  0  0  0  0  0
   -3.0860   -2.4183    2.4562 C   0  0  0  0  0  0
   -4.2732   -3.1002    2.8723 C   0  0  0  0  0  0
   -5.2228   -3.6623    3.2304 N   0  0  0  0  0  0
   -2.9699   -1.0715    2.5266 C   0  0  0  0  0  0
   -1.7367   -4.5269    2.2670 C   0  0  0  0  0  0
   -0.7542   -5.3080    1.6414 C   0  0  0  0  0  0
   -0.4167   -6.6655    2.1492 C   0  0  0  0  0  0
   -0.9569   -7.1944    3.1255 O   0  0  0  0  0  0
   -0.0777   -4.8037    0.5232 C   0  0  0  0  0  0
    3.0145   -2.8564   -3.5976 C   0  0  0  0  0  0
    3.5118   -2.1189   -4.6818 C   0  0  0  0  0  0
    4.4556   -2.7310   -5.6559 C   0  0  0  0  0  0
    4.8631   -3.8946   -5.5886 O   0  0  0  0  0  0
    3.1150   -0.7862   -4.8521 C   0  0  0  0  0  0
    1.3771    4.3046   -6.0014 C   0  0  0  0  0  0
    0.8632    5.6069   -5.9208 C   0  0  0  0  0  0
    1.3055    6.6649   -6.8690 C   0  0  0  0  0  0
    2.1296    6.4867   -7.7711 O   0  0  0  0  0  0
   -0.0797    5.9185   -4.9328 C   0  0  0  0  0  0
   -3.4766    7.4848   -0.8929 C   0  0  0  0  0  0
   -4.4154    7.5060    0.1489 C   0  0  0  0  0  0
   -5.2674    8.7024    0.3879 C   0  0  0  0  0  0
   -5.2163    9.7355   -0.2864 O   0  0  0  0  0  0
   -4.5564    6.3843    0.9763 C   0  0  0  0  0  0
   -3.4006    1.3225    1.5456 H   0  0  0  0  0  0
   -4.6485   -1.2627    4.7166 H   0  0  0  0  0  0
   -6.3174   -0.5952    6.2890 H   0  0  0  0  0  0
   -6.3656    2.6634    4.3376 H   0  0  0  0  0  0
   -2.9185    3.5402    1.7740 H   0  0  0  0  0  0
   -2.2192    4.3721   -0.4227 H   0  0  0  0  0  0
   -2.1419    4.3606   -2.7452 H   0  0  0  0  0  0
   -0.3283    2.8917   -3.4351 H   0  0  0  0  0  0
    1.6282    1.7092   -3.1214 H   0  0  0  0  0  0
    1.0670   -0.4753   -2.1728 H   0  0  0  0  0  0
   -0.3303   -2.2932   -1.7386 H   0  0  0  0  0  0
   -1.6004   -1.7917    0.2691 H   0  0  0  0  0  0
   -2.0470   -0.6358    2.1691 H   0  0  0  0  0  0
   -2.2562   -4.9108    3.1372 H   0  0  0  0  0  0
    0.3629   -7.1847    1.5901 H   0  0  0  0  0  0
    0.6721   -5.4082    0.0283 H   0  0  0  0  0  0
    3.3144   -3.8892   -3.4641 H   0  0  0  0  0  0
    4.7778   -2.0698   -6.4614 H   0  0  0  0  0  0
    3.5088   -0.2070   -5.6780 H   0  0  0  0  0  0
    2.1113    4.0608   -6.7604 H   0  0  0  0  0  0
    0.8444    7.6416   -6.7158 H   0  0  0  0  0  0
   -0.4916    6.9183   -4.8765 H   0  0  0  0  0  0
   -3.3691    8.3471   -1.5405 H   0  0  0  0  0  0
   -5.9645    8.6110    1.2219 H   0  0  0  0  0  0
   -5.2704    6.3984    1.7906 H   0  0  0  0  0  0
  1  2  3  0  0  0
  2  3  1  0  0  0
  3  4  1  0  0  0
  3 12  2  0  0  0
  4 11  1  0  0  0
  4  5  2  0  0  0
  5  6  1  0  0  0
  5 61  1  0  0  0
  6 40  1  0  0  0
  6  7  2  0  0  0
  7  8  1  0  0  0
  7 62  1  0  0  0
  8  9  1  0  0  0
  8 11  2  0  0  0
  9 10  2  0  0  0
  9 63  1  0  0  0
 11 64  1  0  0  0
 12 13  1  0  0  0
 12 65  1  0  0  0
 13 60  1  0  0  0
 13 14  2  0  0  0
 14 15  1  0  0  0
 14 66  1  0  0  0
 15 16  1  0  0  0
 15 56  2  0  0  0
 16 17  1  0  0  0
 16 19  2  0  0  0
 17 18  3  0  0  0
 19 20  1  0  0  0
 19 67  1  0  0  0
 20 55  1  0  0  0
 20 21  2  0  0  0
 21 22  1  0  0  0
 21 68  1  0  0  0
 22 23  1  0  0  0
 22 51  2  0  0  0
 23 24  1  0  0  0
 23 26  2  0  0  0
 24 25  3  0  0  0
 26 27  1  0  0  0
 26 69  1  0  0  0
 27 50  1  0  0  0
 27 28  2  0  0  0
 28 29  1  0  0  0
 28 70  1  0  0  0
 29 30  1  0  0  0
 29 46  2  0  0  0
 30 31  1  0  0  0
 30 33  2  0  0  0
 31 32  3  0  0  0
 33 34  1  0  0  0
 33 71  1  0  0  0
 34 45  1  0  0  0
 34 35  2  0  0  0
 35 36  1  0  0  0
 35 72  1  0  0  0
 36 37  1  0  0  0
 36 41  2  0  0  0
 37 38  1  0  0  0
 37 40  2  0  0  0
 38 39  3  0  0  0
 40 73  1  0  0  0
 41 42  1  0  0  0
 41 74  1  0  0  0
 42 43  1  0  0  0
 42 45  2  0  0  0
 43 44  2  0  0  0
 43 75  1  0  0  0
 45 76  1  0  0  0
 46 47  1  0  0  0
 46 77  1  0  0  0
 47 48  1  0  0  0
 47 50  2  0  0  0
 48 49  2  0  0  0
 48 78  1  0  0  0
 50 79  1  0  0  0
 51 52  1  0  0  0
 51 80  1  0  0  0
 52 53  1  0  0  0
 52 55  2  0  0  0
 53 54  2  0  0  0
 53 81  1  0  0  0
 55 82  1  0  0  0
 56 57  1  0  0  0
 56 83  1  0  0  0
 57 58  1  0  0  0
 57 60  2  0  0  0
 58 59  2  0  0  0
 58 84  1  0  0  0
 60 85  1  0  0  0
M  END
> <s_m_entry_id>
6

> <s_m_entry_name>
N#C/C(C1=CC2=CC(C=O)=C1)=C\C3=CC(/C(C#N)=C/C4=CC(/C(C#N)=C/C5=CC(/C(C#N)=C/C6=CC(/C(C#N)=C/2)=CC(C=O)=C6)=CC(C=O)=C5)=CC(C=O)=C4)=CC(C=O)=C3

> <chiral flag>
1

> <version>
0

> <r_mmod_Potential_Energy-OPLS3e>
325.999938964844

> <r_mmod_Stretch_Energy-OPLS3e>
39.0674171447754

> <r_mmod_Bend_Energy-OPLS3e>
36.5126266479492

> <r_mmod_Torsional_Energy-OPLS3e>
-14.3604907989502

> <r_mmod_Improper_Torsional_Energy-OPLS3e>
0.906273007392883

> <r_mmod_Van_der_Waal_Energy-OPLS3e>
240.477386474609

> <r_mmod_Electrostatic_Energy-OPLS3e>
218.047180175781

> <r_mmod_Solvation_Energy-OPLS3e>
-194.650451660156

> <b_mmod_Minimization_Converged-OPLS3e>
1

> <r_mmod_RMS_Derivative-OPLS3e>
0.041319377720356

> <s_m_job_name>
mmod_mini_50

> <s_m_subgroupid>
mmod_mini_50-out1

> <s_m_subgroup_title>
mmod_mini_50-out1

> <b_m_subgroup_collapsed>
0

$$$$
